# CIF file generated by openbabel 3.0.0, see http://openbabel.sf.net
data_I
_chemical_name_common ''
_cell_length_a 12.981
_cell_length_b 12.981
_cell_length_c 16.43
_cell_angle_alpha 90
_cell_angle_beta 90
_cell_angle_gamma 90
loop_
    _atom_site_label
    _atom_site_type_symbol
    _atom_site_fract_x
    _atom_site_fract_y
    _atom_site_fract_z
    _atom_site_occupancy
    H0      H    0.11600   0.18890   0.39910   1.000
    H1      H    0.70610   0.40360   0.34650   1.000
    N2      N    0.27090   0.65590   0.82520   1.000
    N3      N    0.72910   0.34410   0.32520   1.000
    H4      H    0.85310   0.16930   0.91360   1.000
    H5      H    0.82640   0.80510   0.51460   1.000
    N6      N    0.17230   0.79960   0.83630   1.000
    N7      N    0.82770   0.20040   0.33630   1.000
    C8      C    0.71120   0.79600   0.11610   1.000
    C9      C    0.28880   0.20400   0.61610   1.000
    C10     C    0.20400   0.71120   0.86610   1.000
    C11     C    0.79600   0.28880   0.36610   1.000
    C12     C    0.67310   0.83730   0.19520   1.000
    C13     C    0.32690   0.16270   0.69520   1.000
    C14     C    0.16270   0.67310   0.94520   1.000
    C15     C    0.83730   0.32690   0.44520   1.000
    C16     C    0.56790   0.82730   0.20890   1.000
    C17     C    0.43210   0.17270   0.70890   1.000
    C18     C    0.17270   0.56790   0.95890   1.000
    C19     C    0.82730   0.43210   0.45890   1.000
    C20     C    0.52670   0.87540   0.27680   1.000
    C21     C    0.47330   0.12460   0.77680   1.000
    C22     C    0.12460   0.52670   0.02680   1.000
    C23     C    0.87540   0.47330   0.52680   1.000
    C24     C    0.58410   0.93490   0.33040   1.000
    C25     C    0.41590   0.06510   0.83040   1.000
    C26     C    0.06510   0.58410   0.08040   1.000
    C27     C    0.93490   0.41590   0.58040   1.000
    C28     C    0.68990   0.94590   0.31470   1.000
    C29     C    0.31010   0.05410   0.81470   1.000
    C30     C    0.05410   0.68990   0.06470   1.000
    C31     C    0.94590   0.31010   0.56470   1.000
    C32     C    0.73350   0.89600   0.24770   1.000
    C33     C    0.26650   0.10400   0.74770   1.000
    C34     C    0.10400   0.73350   0.99770   1.000
    C35     C    0.89600   0.26650   0.49770   1.000
    C36     C    0.52560   0.00020   0.39310   1.000
    C37     C    0.47440   0.99980   0.89310   1.000
    C38     C    0.99980   0.52560   0.14310   1.000
    C39     C    0.00020   0.47440   0.64310   1.000
    H40     H    0.14690   0.83070   0.41360   1.000
    H41     H    0.69010   0.31280   0.80270   1.000
    N42     N    0.84690   0.79230   0.46320   1.000
    N43     N    0.15310   0.20770   0.96320   1.000
    H44     H    0.21700   0.83340   0.33660   1.000
    H45     H    0.34020   0.28770   0.45830   1.000
    N46     N    0.72350   0.66980   0.45210   1.000
    N47     N    0.27650   0.33020   0.95210   1.000
    C48     C    0.71750   0.19620   0.67140   1.000
    C49     C    0.28250   0.80380   0.17140   1.000
    C50     C    0.80380   0.71750   0.42140   1.000
    C51     C    0.19620   0.28250   0.92140   1.000
    C52     C    0.68570   0.15340   0.59080   1.000
    C53     C    0.31430   0.84660   0.09080   1.000
    C54     C    0.84660   0.68570   0.34080   1.000
    C55     C    0.15340   0.31430   0.84080   1.000
    C56     C    0.70910   0.05250   0.56810   1.000
    C57     C    0.29090   0.94750   0.06810   1.000
    C58     C    0.94750   0.70910   0.31810   1.000
    C59     C    0.05250   0.29090   0.81810   1.000
    C60     C    0.66590   0.00730   0.49930   1.000
    C61     C    0.33410   0.99270   0.99930   1.000
    C62     C    0.99270   0.66590   0.24930   1.000
    C63     C    0.00730   0.33410   0.74930   1.000
    C64     C    0.59610   0.06090   0.45070   1.000
    C65     C    0.40390   0.93910   0.95070   1.000
    C66     C    0.93910   0.59610   0.20070   1.000
    C67     C    0.06090   0.40390   0.70070   1.000
    C68     C    0.58170   0.16480   0.46880   1.000
    C69     C    0.41830   0.83520   0.96880   1.000
    C70     C    0.83520   0.58170   0.21880   1.000
    C71     C    0.16480   0.41830   0.71880   1.000
    C72     C    0.62380   0.21110   0.53800   1.000
    C73     C    0.37620   0.78890   0.03800   1.000
    C74     C    0.78890   0.62380   0.28800   1.000
    C75     C    0.21110   0.37620   0.78800   1.000
    H76     H    0.88400   0.81110   0.89910   1.000
    H77     H    0.29560   0.67820   0.77710   1.000
    N78     N    0.71500   0.34460   0.84720   1.000
    N79     N    0.28500   0.65540   0.34720   1.000
    H80     H    0.80480   0.81550   0.97040   1.000
    H81     H    0.30640   0.59140   0.35990   1.000
    N82     N    0.80680   0.19990   0.88080   1.000
    N83     N    0.19320   0.80010   0.38080   1.000
    C84     C    0.29560   0.22120   0.14570   1.000
    C85     C    0.70440   0.77880   0.64570   1.000
    C86     C    0.77880   0.29560   0.89570   1.000
    C87     C    0.22120   0.70440   0.39570   1.000
    C88     C    0.34970   0.17920   0.21870   1.000
    C89     C    0.65030   0.82080   0.71870   1.000
    C90     C    0.82080   0.34970   0.96870   1.000
    C91     C    0.17920   0.65030   0.46870   1.000
    C92     C    0.45630   0.19030   0.22720   1.000
    C93     C    0.54370   0.80970   0.72720   1.000
    C94     C    0.80970   0.45630   0.97720   1.000
    C95     C    0.19030   0.54370   0.47720   1.000
    C96     C    0.51170   0.13790   0.28620   1.000
    C97     C    0.48830   0.86210   0.78620   1.000
    C98     C    0.86210   0.51170   0.03620   1.000
    C99     C    0.13790   0.48830   0.53620   1.000
    C100    C    0.46030   0.07280   0.34010   1.000
    C101    C    0.53970   0.92720   0.84010   1.000
    C102    C    0.92720   0.46030   0.09010   1.000
    C103    C    0.07280   0.53970   0.59010   1.000
    C104    C    0.35330   0.05980   0.33280   1.000
    C105    C    0.64670   0.94020   0.83280   1.000
    C106    C    0.94020   0.35330   0.08280   1.000
    C107    C    0.05980   0.64670   0.58280   1.000
    C108    C    0.29960   0.11410   0.27290   1.000
    C109    C    0.70040   0.88590   0.77290   1.000
    C110    C    0.88590   0.29960   0.02290   1.000
    C111    C    0.11410   0.70040   0.52290   1.000
    H112    H    0.69360   0.40860   0.85990   1.000
    H113    H    0.70440   0.32180   0.27710   1.000
    N114    N    0.30520   0.32930   0.42420   1.000
    N115    N    0.69480   0.67070   0.92420   1.000
    H116    H    0.12460   0.83650   0.86350   1.000
    H117    H    0.89860   0.82920   0.44120   1.000
    N118    N    0.17090   0.21540   0.42520   1.000
    N119    N    0.82910   0.78460   0.92520   1.000
    C120    C    0.29670   0.78340   0.64460   1.000
    C121    C    0.70330   0.21660   0.14460   1.000
    C122    C    0.21660   0.29670   0.39460   1.000
    C123    C    0.78340   0.70330   0.89460   1.000
    C124    C    0.35270   0.83340   0.57610   1.000
    C125    C    0.64730   0.16660   0.07610   1.000
    C126    C    0.16660   0.35270   0.32610   1.000
    C127    C    0.83340   0.64730   0.82610   1.000
    C128    C    0.34690   0.94020   0.56810   1.000
    C129    C    0.65310   0.05980   0.06810   1.000
    C130    C    0.05980   0.34690   0.31810   1.000
    C131    C    0.94020   0.65310   0.81810   1.000
    C132    C    0.40090   0.99300   0.50810   1.000
    C133    C    0.59910   0.00700   0.00810   1.000
    C134    C    0.00700   0.40090   0.25810   1.000
    C135    C    0.99300   0.59910   0.75810   1.000
    C136    C    0.46080   0.93680   0.45300   1.000
    C137    C    0.53920   0.06320   0.95300   1.000
    C138    C    0.06320   0.46080   0.20300   1.000
    C139    C    0.93680   0.53920   0.70300   1.000
    C140    C    0.46760   0.82990   0.46070   1.000
    C141    C    0.53240   0.17010   0.96070   1.000
    C142    C    0.17010   0.46760   0.21070   1.000
    C143    C    0.82990   0.53240   0.71070   1.000
    C144    C    0.41360   0.77780   0.52160   1.000
    C145    C    0.58640   0.22220   0.02160   1.000
    C146    C    0.22220   0.41360   0.27160   1.000
    C147    C    0.77780   0.58640   0.77160   1.000
    O148    O    0.32310   0.69370   0.66750   1.000
    O149    O    0.67690   0.30630   0.16750   1.000
    H150    H    0.10140   0.17080   0.94120   1.000
    H151    H    0.30990   0.68720   0.30270   1.000
    O152    O    0.22500   0.83360   0.67800   1.000
    O153    O    0.77500   0.16640   0.17800   1.000
    H154    H    0.17360   0.19490   0.01460   1.000
    H155    H    0.78300   0.16660   0.83660   1.000
    O156    O    0.21080   0.18090   0.12400   1.000
    O157    O    0.78920   0.81910   0.62400   1.000
    H158    H    0.19520   0.18450   0.47040   1.000
    H159    H    0.66450   0.61400   0.90390   1.000
    O160    O    0.33600   0.29510   0.10710   1.000
    O161    O    0.66400   0.70490   0.60710   1.000
    H162    H    0.29390   0.59640   0.84650   1.000
    H163    H    0.33550   0.38600   0.40390   1.000
    O164    O    0.68670   0.28450   0.69290   1.000
    O165    O    0.31330   0.71550   0.19290   1.000
    H166    H    0.80350   0.17750   0.28830   1.000
    H167    H    0.69170   0.62000   0.42340   1.000
    O168    O    0.77460   0.14370   0.71790   1.000
    O169    O    0.22540   0.85630   0.21790   1.000
    H170    H    0.19650   0.82250   0.78830   1.000
    H171    H    0.30830   0.38000   0.92340   1.000
    O172    O    0.78730   0.83930   0.08210   1.000
    O173    O    0.21270   0.16070   0.58210   1.000
    H174    H    0.65980   0.71230   0.95830   1.000
    H175    H    0.70370   0.68320   0.50350   1.000
    O176    O    0.66660   0.71920   0.08520   1.000
    O177    O    0.33340   0.28080   0.58520   1.000
    H178    H    0.87540   0.16350   0.36350   1.000
    H179    H    0.29630   0.31680   0.00350   1.000
    H180    H    0.52640   0.78730   0.17330   1.000
    H181    H    0.47360   0.21270   0.67330   1.000
    H182    H    0.21270   0.52640   0.92330   1.000
    H183    H    0.78730   0.47360   0.42330   1.000
    H184    H    0.45510   0.86820   0.28730   1.000
    H185    H    0.54490   0.13180   0.78730   1.000
    H186    H    0.13180   0.45510   0.03730   1.000
    H187    H    0.86820   0.54490   0.53730   1.000
    H188    H    0.73110   0.98700   0.34980   1.000
    H189    H    0.26890   0.01300   0.84980   1.000
    H190    H    0.01300   0.73110   0.09980   1.000
    H191    H    0.98700   0.26890   0.59980   1.000
    H192    H    0.80520   0.90240   0.23730   1.000
    H193    H    0.19480   0.09760   0.73730   1.000
    H194    H    0.09760   0.80520   0.98730   1.000
    H195    H    0.90240   0.19480   0.48730   1.000
    H196    H    0.75530   0.01380   0.60090   1.000
    H197    H    0.24470   0.98620   0.10090   1.000
    H198    H    0.98620   0.75530   0.35090   1.000
    H199    H    0.01380   0.24470   0.85090   1.000
    H200    H    0.68370   0.93860   0.48500   1.000
    H201    H    0.31630   0.06140   0.98500   1.000
    H202    H    0.06140   0.68370   0.23500   1.000
    H203    H    0.93860   0.31630   0.73500   1.000
    H204    H    0.54140   0.20540   0.43280   1.000
    H205    H    0.45860   0.79460   0.93280   1.000
    H206    H    0.79460   0.54140   0.18280   1.000
    H207    H    0.20540   0.45860   0.68280   1.000
    H208    H    0.61040   0.28150   0.54960   1.000
    H209    H    0.38960   0.71850   0.04960   1.000
    H210    H    0.71850   0.61040   0.29960   1.000
    H211    H    0.28150   0.38960   0.79960   1.000
    H212    H    0.49160   0.23530   0.19110   1.000
    H213    H    0.50840   0.76470   0.69110   1.000
    H214    H    0.76470   0.49160   0.94110   1.000
    H215    H    0.23530   0.50840   0.44110   1.000
    H216    H    0.58420   0.14660   0.29090   1.000
    H217    H    0.41580   0.85340   0.79090   1.000
    H218    H    0.85340   0.58420   0.04090   1.000
    H219    H    0.14660   0.41580   0.54090   1.000
    H220    H    0.31780   0.01530   0.36910   1.000
    H221    H    0.68220   0.98470   0.86910   1.000
    H222    H    0.98470   0.31780   0.11910   1.000
    H223    H    0.01530   0.68220   0.61910   1.000
    H224    H    0.22730   0.10470   0.26740   1.000
    H225    H    0.77270   0.89530   0.76740   1.000
    H226    H    0.89530   0.22730   0.01740   1.000
    H227    H    0.10470   0.77270   0.51740   1.000
    H228    H    0.30340   0.97720   0.60420   1.000
    H229    H    0.69660   0.02280   0.10420   1.000
    H230    H    0.02280   0.30340   0.35420   1.000
    H231    H    0.97720   0.69660   0.85420   1.000
    H232    H    0.39760   0.06600   0.50470   1.000
    H233    H    0.60240   0.93400   0.00470   1.000
    H234    H    0.93400   0.39760   0.25470   1.000
    H235    H    0.06600   0.60240   0.75470   1.000
    H236    H    0.50930   0.79240   0.42350   1.000
    H237    H    0.49070   0.20760   0.92350   1.000
    H238    H    0.20760   0.50930   0.17350   1.000
    H239    H    0.79240   0.49070   0.67350   1.000
    H240    H    0.41770   0.70490   0.52580   1.000
    H241    H    0.58230   0.29510   0.02580   1.000
    H242    H    0.29510   0.41770   0.27580   1.000
    H243    H    0.70490   0.58230   0.77580   1.000
